Version 4
SHEET 1 1432 792
WIRE -240 -448 -240 -480
WIRE -144 -448 -240 -448
WIRE -144 -416 -144 -448
WIRE -240 -352 -240 -448
WIRE -144 -304 -144 -336
WIRE -144 -304 -176 -304
WIRE -144 -272 -144 -304
WIRE 768 -240 768 -272
WIRE -240 -224 -240 -256
WIRE -208 -224 -240 -224
WIRE -240 -192 -240 -224
WIRE 768 -128 768 -160
WIRE 768 -128 512 -128
WIRE 768 -96 768 -128
WIRE 960 -96 960 -128
WIRE -240 -80 -240 -112
WIRE -48 16 -368 16
WIRE 480 16 48 16
WIRE 544 16 480 16
WIRE 768 16 768 -16
WIRE 768 16 624 16
WIRE 880 16 768 16
WIRE 960 16 960 -16
WIRE 960 16 880 16
WIRE 1040 16 1040 -32
WIRE 1040 16 960 16
WIRE 1248 16 1040 16
WIRE 768 48 768 16
WIRE 960 48 960 16
WIRE 240 80 208 80
WIRE 336 80 304 80
WIRE 0 112 0 80
WIRE 768 160 768 128
WIRE 768 160 656 160
WIRE 960 160 960 128
WIRE 336 192 336 80
WIRE 336 192 304 192
WIRE 368 192 336 192
WIRE 480 192 480 16
WIRE 480 192 448 192
WIRE 768 192 768 160
WIRE -144 208 -144 -176
WIRE 0 208 0 176
WIRE 0 208 -144 208
WIRE 32 208 0 208
WIRE 208 208 208 80
WIRE 208 208 96 208
WIRE 240 208 208 208
WIRE 512 224 512 -128
WIRE 512 224 304 224
WIRE -368 272 -368 16
WIRE 1040 272 1040 16
WIRE 768 304 768 272
WIRE 240 352 208 352
WIRE 336 352 304 352
WIRE 880 384 880 16
WIRE 1344 448 1344 416
WIRE 336 464 336 352
WIRE 336 464 304 464
WIRE 368 464 336 464
WIRE 656 464 656 160
WIRE 656 464 448 464
WIRE 0 480 0 208
WIRE 32 480 0 480
WIRE 208 480 208 352
WIRE 208 480 96 480
WIRE 240 480 208 480
WIRE 880 496 880 464
WIRE 880 496 304 496
WIRE 1248 512 1248 16
WIRE 880 528 880 496
WIRE 1344 560 1344 528
WIRE 1344 560 1312 560
WIRE 1344 592 1344 560
WIRE -368 640 -368 352
WIRE 880 640 880 608
WIRE 880 640 -368 640
WIRE 1040 640 1040 336
WIRE 1040 640 880 640
WIRE 1248 640 1248 608
WIRE 1280 640 1248 640
WIRE 1040 672 1040 640
WIRE 1248 672 1248 640
WIRE 1040 784 1040 752
WIRE 1248 784 1248 752
WIRE 1248 784 1040 784
WIRE 1344 784 1344 688
WIRE 1344 784 1248 784
FLAG -240 -480 +5V
FLAG -240 -80 -5V
FLAG 272 240 -5V
FLAG 272 512 -5V
FLAG 272 176 +5V
FLAG 272 448 +5V
FLAG 768 304 -5V
FLAG 768 -272 +5V
FLAG -368 16 V+
FLAG -368 640 V-
FLAG 1344 416 V+
FLAG 1040 -32 0
FLAG 960 -128 +5V
FLAG 960 160 -5V
SYMBOL voltage -368 256 R0
WINDOW 123 0 0 Left 2
WINDOW 39 0 0 Left 2
SYMATTR InstName V1
SYMATTR Value 20
SYMBOL npn -48 80 R270
SYMATTR InstName Q1
SYMATTR Value TIP101
SYMATTR Prefix X
SYMBOL pnp -176 -256 R180
SYMATTR InstName Q2
SYMATTR Value BC857C
SYMBOL pnp -208 -176 M180
SYMATTR InstName Q3
SYMATTR Value BC857C
SYMBOL res -160 -432 R0
SYMATTR InstName R1
SYMATTR Value 330
SYMBOL res -256 -208 R0
SYMATTR InstName R2
SYMATTR Value 10k
SYMBOL diode 16 176 R180
WINDOW 0 24 64 Left 2
WINDOW 3 24 0 Left 2
SYMATTR InstName D1
SYMATTR Value 1N4148
SYMBOL diode 32 224 R270
WINDOW 0 32 32 VTop 2
WINDOW 3 0 32 VBottom 2
SYMATTR InstName D2
SYMATTR Value 1N4148
SYMBOL diode 32 496 R270
WINDOW 0 32 32 VTop 2
WINDOW 3 0 32 VBottom 2
SYMATTR InstName D3
SYMATTR Value 1N4148
SYMBOL Opamps\\opamp2 272 144 M0
SYMATTR InstName U1
SYMATTR Value NE5532
SYMBOL Opamps\\opamp2 272 416 M0
SYMATTR InstName U2
SYMATTR Value NE5532
SYMBOL res 640 0 R90
WINDOW 0 0 56 VBottom 2
WINDOW 3 32 56 VTop 2
SYMATTR InstName R3
SYMATTR Value 1
SYMBOL cap 304 64 R90
WINDOW 0 0 32 VBottom 2
WINDOW 3 32 32 VTop 2
SYMATTR InstName C1
SYMATTR Value 100p
SYMBOL res 464 176 R90
WINDOW 0 0 56 VBottom 2
WINDOW 3 32 56 VTop 2
SYMATTR InstName R4
SYMATTR Value 22k
SYMBOL res 464 448 R90
WINDOW 0 0 56 VBottom 2
WINDOW 3 32 56 VTop 2
SYMATTR InstName R5
SYMATTR Value 22k
SYMBOL res 784 144 R180
WINDOW 0 36 76 Left 2
WINDOW 3 36 40 Left 2
SYMATTR InstName R8
SYMATTR Value 3k
SYMBOL res 784 0 R180
WINDOW 0 36 76 Left 2
WINDOW 3 36 40 Left 2
SYMATTR InstName R9
SYMATTR Value 1k
SYMBOL res 784 -144 R180
WINDOW 0 36 76 Left 2
WINDOW 3 36 40 Left 2
SYMATTR InstName R10
SYMATTR Value 9k
SYMBOL res 784 288 R180
WINDOW 0 36 76 Left 2
WINDOW 3 36 40 Left 2
SYMATTR InstName R11
SYMATTR Value 7k
SYMBOL res 896 480 R180
WINDOW 0 36 76 Left 2
WINDOW 3 36 40 Left 2
SYMATTR InstName R12
SYMATTR Value 4k7
SYMBOL res 896 624 R180
WINDOW 0 36 76 Left 2
WINDOW 3 36 40 Left 2
SYMATTR InstName R13
SYMATTR Value 47k
SYMBOL npn 1280 592 R0
SYMATTR InstName Q4
SYMATTR Value BC847C
SYMBOL npn 1312 512 M0
SYMATTR InstName Q5
SYMATTR Value BC847C
SYMBOL res 1360 544 R180
WINDOW 0 36 76 Left 2
WINDOW 3 36 40 Left 2
SYMATTR InstName R14
SYMATTR Value 10k
SYMBOL res 1264 768 R180
WINDOW 0 36 76 Left 2
WINDOW 3 36 40 Left 2
SYMATTR InstName R15
SYMATTR Value 100
SYMBOL voltage 1040 656 R0
WINDOW 123 0 0 Left 2
WINDOW 39 0 0 Left 2
SYMATTR InstName V2
SYMATTR Value 3.3
SYMBOL voltage 960 -112 R0
WINDOW 123 0 0 Left 2
WINDOW 39 0 0 Left 2
SYMATTR InstName V3
SYMATTR Value 5
SYMBOL voltage 960 32 R0
WINDOW 123 0 0 Left 2
WINDOW 39 0 0 Left 2
SYMATTR InstName V4
SYMATTR Value 5
SYMBOL cap 304 336 R90
WINDOW 0 0 32 VBottom 2
WINDOW 3 32 32 VTop 2
SYMATTR InstName C2
SYMATTR Value 100p
SYMBOL cap 1056 336 R180
WINDOW 0 24 56 Left 2
WINDOW 3 24 8 Left 2
SYMATTR InstName C3
SYMATTR Value 100n
TEXT -344 512 Left 2 !.lib TIP101.lib
TEXT -344 544 Left 2 !.lib NE5532.sub
TEXT -344 576 Left 2 ;.ac dec 0 10 10Meg
TEXT -344 608 Left 2 !.tran 1p 10m 5m
