Version 4
SHEET 1 1432 792
WIRE -240 -448 -240 -480
WIRE -144 -448 -240 -448
WIRE -144 -416 -144 -448
WIRE -240 -352 -240 -448
WIRE -144 -304 -144 -336
WIRE -144 -304 -176 -304
WIRE -144 -272 -144 -304
WIRE -240 -224 -240 -256
WIRE -208 -224 -240 -224
WIRE -240 -192 -240 -224
WIRE 896 -96 896 -128
WIRE -240 -80 -240 -112
WIRE -48 16 -368 16
WIRE 336 16 48 16
WIRE 816 16 416 16
WIRE 896 16 896 -16
WIRE 896 16 816 16
WIRE 976 16 976 -32
WIRE 976 16 896 16
WIRE 1184 16 976 16
WIRE 896 48 896 16
WIRE 0 112 0 80
WIRE 384 128 352 128
WIRE 816 144 816 16
WIRE 368 160 352 128
WIRE 368 160 384 128
WIRE 896 160 896 128
WIRE 240 192 208 192
WIRE 368 192 304 192
WIRE 432 192 368 192
WIRE 608 192 512 192
WIRE -144 208 -144 -176
WIRE 0 208 0 176
WIRE 0 208 -144 208
WIRE -368 224 -368 16
WIRE 976 240 976 16
WIRE 608 272 608 192
WIRE 816 288 816 224
WIRE 816 288 656 288
WIRE 464 304 304 304
WIRE 0 320 0 208
WIRE 32 320 0 320
WIRE 208 320 208 192
WIRE 208 320 96 320
WIRE 240 320 208 320
WIRE 464 320 464 304
WIRE 1280 320 1280 288
WIRE 368 336 304 336
WIRE 672 336 656 336
WIRE 608 368 608 352
WIRE 672 368 672 336
WIRE 816 368 816 288
WIRE 1184 384 1184 16
WIRE 368 416 368 336
WIRE 464 416 464 400
WIRE 1280 432 1280 400
WIRE 1280 432 1248 432
WIRE 1280 464 1280 432
WIRE -368 512 -368 304
WIRE 816 512 816 448
WIRE 816 512 -368 512
WIRE 976 512 976 304
WIRE 976 512 816 512
WIRE 1184 512 1184 480
WIRE 1216 512 1184 512
WIRE 976 544 976 512
WIRE 1184 544 1184 512
WIRE 976 656 976 624
WIRE 1184 656 1184 624
WIRE 1184 656 976 656
WIRE 1280 656 1280 560
WIRE 1280 656 1184 656
FLAG -240 -480 +5V
FLAG -240 -80 -5V
FLAG 272 352 -5V
FLAG 272 288 +5V
FLAG -368 16 V+
FLAG -368 512 V-
FLAG 1280 288 V+
FLAG 976 -32 0
FLAG 896 -128 +5V
FLAG 896 160 -5V
FLAG 672 368 0
FLAG 608 368 0
FLAG 464 416 0
FLAG 368 416 0
FLAG 368 192 U_OL
FLAG 608 192 U_NC
SYMBOL voltage -368 208 R0
WINDOW 123 0 0 Left 2
WINDOW 39 0 0 Left 2
SYMATTR InstName V1
SYMATTR Value 20
SYMBOL npn -48 80 R270
SYMATTR InstName Q1
SYMATTR Value TIP101
SYMATTR Prefix X
SYMBOL pnp -176 -256 R180
SYMATTR InstName Q2
SYMATTR Value BC857C
SYMBOL pnp -208 -176 M180
SYMATTR InstName Q3
SYMATTR Value BC857C
SYMBOL res -160 -432 R0
SYMATTR InstName R1
SYMATTR Value 330
SYMBOL res -256 -208 R0
SYMATTR InstName R2
SYMATTR Value 10k
SYMBOL diode 16 176 R180
WINDOW 0 24 64 Left 2
WINDOW 3 24 0 Left 2
SYMATTR InstName D1
SYMATTR Value 1N4148
SYMBOL Opamps\\opamp2 272 256 M0
SYMATTR InstName U2
SYMATTR Value NE5532
SYMBOL res 432 0 R90
WINDOW 0 0 56 VBottom 2
WINDOW 3 32 56 VTop 2
SYMATTR InstName R3
SYMATTR Value 1
SYMBOL res 528 176 R90
WINDOW 0 0 56 VBottom 2
WINDOW 3 32 56 VTop 2
SYMATTR InstName R5
SYMATTR Value 22k
SYMBOL res 832 240 R180
WINDOW 0 36 76 Left 2
WINDOW 3 36 40 Left 2
SYMATTR InstName R12
SYMATTR Value 4k7
SYMBOL res 832 464 R180
WINDOW 0 36 76 Left 2
WINDOW 3 36 40 Left 2
SYMATTR InstName R13
SYMATTR Value 47k
SYMBOL npn 1216 464 R0
SYMATTR InstName Q4
SYMATTR Value BC847C
SYMBOL npn 1248 384 M0
SYMATTR InstName Q5
SYMATTR Value BC847C
SYMBOL res 1296 416 R180
WINDOW 0 36 76 Left 2
WINDOW 3 36 40 Left 2
SYMATTR InstName R14
SYMATTR Value 10k
SYMBOL res 1200 640 R180
WINDOW 0 36 76 Left 2
WINDOW 3 36 40 Left 2
SYMATTR InstName R15
SYMATTR Value 100
SYMBOL voltage 976 528 R0
WINDOW 123 0 0 Left 2
WINDOW 39 0 0 Left 2
SYMATTR InstName V2
SYMATTR Value 3.3
SYMBOL voltage 896 -112 R0
WINDOW 123 0 0 Left 2
WINDOW 39 0 0 Left 2
SYMATTR InstName V3
SYMATTR Value 5
SYMBOL voltage 896 32 R0
WINDOW 123 0 0 Left 2
WINDOW 39 0 0 Left 2
SYMATTR InstName V4
SYMATTR Value 5
SYMBOL cap 992 304 R180
WINDOW 0 24 56 Left 2
WINDOW 3 24 8 Left 2
SYMATTR InstName C3
SYMATTR Value 100n
SYMBOL voltage 464 416 R180
WINDOW 123 24 124 Left 2
WINDOW 39 0 0 Left 2
SYMATTR Value2 AC 0.0001 0
SYMATTR InstName V6
SYMATTR Value 0
SYMBOL diode 32 336 R270
WINDOW 0 32 32 VTop 2
WINDOW 3 0 32 VBottom 2
SYMATTR InstName D3
SYMATTR Value 1N4148
SYMBOL e 608 256 M0
SYMATTR InstName E1
SYMATTR Value -1
SYMBOL cap 304 176 R90
WINDOW 0 0 32 VBottom 2
WINDOW 3 32 32 VTop 2
SYMATTR InstName C2
SYMATTR Value 100p
TEXT -320 400 Left 2 !.lib TIP101.lib
TEXT -320 432 Left 2 !.lib NE5532.sub
TEXT -320 464 Left 2 !.ac dec 50 10 100Meg
TEXT 208 88 Left 2 ;Open Loop Gain hier messen.
TEXT 80 472 Left 2 ;Als Referenz (0dB Linie) die Spannung über V6 messen.
