Version 4
SHEET 1 1432 792
WIRE -240 -448 -240 -480
WIRE -144 -448 -240 -448
WIRE -144 -416 -144 -448
WIRE -240 -352 -240 -448
WIRE -144 -304 -144 -336
WIRE -144 -304 -176 -304
WIRE -144 -272 -144 -304
WIRE -240 -224 -240 -256
WIRE -208 -224 -240 -224
WIRE -240 -192 -240 -224
WIRE 720 -96 720 -128
WIRE -240 -80 -240 -112
WIRE -48 16 -368 16
WIRE 208 16 48 16
WIRE 400 16 208 16
WIRE 720 16 720 -16
WIRE 720 16 480 16
WIRE 832 16 832 -32
WIRE 832 16 720 16
WIRE 1040 16 832 16
WIRE 720 48 720 16
WIRE 208 64 208 16
WIRE 0 112 0 80
WIRE 832 144 832 16
WIRE 896 144 832 144
WIRE 720 160 720 128
WIRE 208 176 208 144
WIRE 240 176 272 160
WIRE 272 192 272 160
WIRE 272 192 240 176
WIRE 832 192 832 144
WIRE 896 192 896 144
WIRE -368 208 -368 16
WIRE 208 208 208 176
WIRE 560 288 400 288
WIRE -144 304 -144 -176
WIRE 0 304 0 176
WIRE 0 304 -144 304
WIRE 32 304 0 304
WIRE 208 304 208 272
WIRE 208 304 96 304
WIRE 336 304 208 304
WIRE 560 304 560 288
WIRE 832 304 832 256
WIRE 896 304 896 272
WIRE 896 304 832 304
WIRE 1136 304 1136 272
WIRE 448 320 400 320
WIRE 1040 368 1040 16
WIRE 448 400 448 320
WIRE 560 400 560 384
WIRE 1136 416 1136 384
WIRE 1136 416 1104 416
WIRE 1136 448 1136 416
WIRE -368 496 -368 288
WIRE 832 496 832 304
WIRE 832 496 -368 496
WIRE 1040 496 1040 464
WIRE 1072 496 1040 496
WIRE 832 528 832 496
WIRE 1040 528 1040 496
WIRE 832 640 832 608
WIRE 1040 640 1040 608
WIRE 1040 640 832 640
WIRE 1136 640 1136 544
WIRE 1136 640 1040 640
FLAG -240 -480 +5V
FLAG -240 -80 -5V
FLAG 368 336 -5V
FLAG 368 272 +5V
FLAG -368 16 V+
FLAG -368 496 V-
FLAG 1136 272 V+
FLAG 832 -32 0
FLAG 720 -128 +5V
FLAG 720 160 -5V
FLAG 560 400 0
FLAG 448 400 0
FLAG 208 176 U_OL
FLAG 208 16 U_NC
SYMBOL voltage -368 192 R0
WINDOW 123 0 0 Left 2
WINDOW 39 0 0 Left 2
SYMATTR InstName V1
SYMATTR Value 20
SYMBOL npn -48 80 R270
SYMATTR InstName Q1
SYMATTR Value TIP101
SYMATTR Prefix X
SYMBOL pnp -176 -256 R180
SYMATTR InstName Q2
SYMATTR Value BC857C
SYMBOL pnp -208 -176 M180
SYMATTR InstName Q3
SYMATTR Value BC857C
SYMBOL res -160 -432 R0
SYMATTR InstName R1
SYMATTR Value 330
SYMBOL res -256 -208 R0
SYMATTR InstName R2
SYMATTR Value 10k
SYMBOL diode 16 176 R180
WINDOW 0 24 64 Left 2
WINDOW 3 24 0 Left 2
SYMATTR InstName D1
SYMATTR Value 1N4148
SYMBOL Opamps\\opamp2 368 240 M0
SYMATTR InstName U1
SYMATTR Value NE5532
SYMBOL res 496 0 R90
WINDOW 0 0 56 VBottom 2
WINDOW 3 32 56 VTop 2
SYMATTR InstName R3
SYMATTR Value 1
SYMBOL cap 192 208 R0
SYMATTR InstName C1
SYMATTR Value 10p
SYMBOL res 192 48 R0
SYMATTR InstName R4
SYMATTR Value 22k
SYMBOL npn 1072 448 R0
SYMATTR InstName Q4
SYMATTR Value BC847C
SYMBOL npn 1104 368 M0
SYMATTR InstName Q5
SYMATTR Value BC847C
SYMBOL res 1152 400 R180
WINDOW 0 36 76 Left 2
WINDOW 3 36 40 Left 2
SYMATTR InstName R14
SYMATTR Value 10k
SYMBOL res 1056 624 R180
WINDOW 0 36 76 Left 2
WINDOW 3 36 40 Left 2
SYMATTR InstName R15
SYMATTR Value 100
SYMBOL voltage 832 512 R0
WINDOW 123 0 0 Left 2
WINDOW 39 0 0 Left 2
SYMATTR InstName V2
SYMATTR Value 3.3
SYMBOL voltage 720 -112 R0
WINDOW 123 0 0 Left 2
WINDOW 39 0 0 Left 2
SYMATTR InstName V3
SYMATTR Value 5
SYMBOL voltage 720 32 R0
WINDOW 123 0 0 Left 2
WINDOW 39 0 0 Left 2
SYMATTR InstName V4
SYMATTR Value 5
SYMBOL cap 848 256 R180
WINDOW 0 24 56 Left 2
WINDOW 3 24 8 Left 2
SYMATTR InstName C3
SYMATTR Value 100n
SYMBOL voltage 560 400 R180
WINDOW 123 24 124 Left 2
WINDOW 39 0 0 Left 2
SYMATTR Value2 AC 0.0001 0
SYMATTR InstName V6
SYMATTR Value 0
SYMBOL diode 32 320 R270
WINDOW 0 32 32 VTop 2
WINDOW 3 0 32 VBottom 2
SYMATTR InstName D2
SYMATTR Value 1N4148
SYMBOL res 880 176 R0
SYMATTR InstName R6
SYMATTR Value 1
TEXT -328 392 Left 2 !.lib TIP101.lib
TEXT -328 424 Left 2 !.lib NE5532.sub
TEXT -328 456 Left 2 !.ac dec 50 10 100Meg
TEXT 304 176 Left 2 ;Open Loop Gain hier messen
TEXT 128 464 Left 2 ;Als Referenz (0dB Linie) die Spannung über V6 messen.
