Version 4
SHEET 1 1988 680
WIRE 336 -416 336 -448
WIRE 336 -416 240 -416
WIRE 336 -384 336 -416
WIRE 1248 -368 1248 -400
WIRE 240 -320 240 -416
WIRE 336 -272 336 -304
WIRE 336 -272 304 -272
WIRE 1152 -256 992 -256
WIRE 1248 -256 1248 -288
WIRE 1248 -256 1152 -256
WIRE 336 -240 336 -272
WIRE 1440 -240 1440 -272
WIRE 1152 -224 1152 -256
WIRE 1248 -224 1248 -256
WIRE 240 -192 240 -224
WIRE 272 -192 240 -192
WIRE 448 -112 -144 -112
WIRE 896 -112 544 -112
WIRE 1024 -112 896 -112
WIRE 1152 -112 1152 -144
WIRE 1152 -112 1104 -112
WIRE 1248 -112 1248 -144
WIRE 1248 -112 1152 -112
WIRE 1344 -112 1248 -112
WIRE 1440 -112 1440 -160
WIRE 1440 -112 1344 -112
WIRE 1584 -112 1440 -112
WIRE 240 -80 240 -192
WIRE 896 -80 896 -112
WIRE 1152 -80 1152 -112
WIRE 1248 -80 1248 -112
WIRE 1440 -64 1440 -112
WIRE 496 0 496 -48
WIRE 752 32 672 32
WIRE 896 32 896 0
WIRE 896 32 816 32
WIRE 1152 32 1152 0
WIRE 1248 32 1248 0
WIRE 1248 32 1152 32
WIRE 1680 32 1680 0
WIRE 240 48 240 0
WIRE 1440 48 1440 16
WIRE -144 64 -144 -112
WIRE 1248 64 1248 32
WIRE 1584 96 1584 -112
WIRE 896 144 896 32
WIRE 896 144 816 144
WIRE 1680 144 1680 112
WIRE 1680 144 1648 144
WIRE 336 160 336 -144
WIRE 496 160 496 64
WIRE 496 160 336 160
WIRE 544 160 496 160
WIRE 672 160 672 32
WIRE 672 160 608 160
WIRE 752 160 672 160
WIRE 992 176 992 -256
WIRE 992 176 816 176
WIRE 1152 176 1152 32
WIRE 1248 176 1248 144
WIRE 1680 176 1680 144
WIRE 1584 224 1584 192
WIRE 1616 224 1584 224
WIRE 1584 256 1584 224
WIRE 752 288 672 288
WIRE 896 288 816 288
WIRE 1344 320 1344 -112
WIRE -144 336 -144 144
WIRE 1584 384 1584 336
WIRE 1680 384 1680 272
WIRE 1680 384 1584 384
WIRE 896 400 896 288
WIRE 896 400 816 400
WIRE 1152 400 1152 256
WIRE 1152 400 896 400
WIRE 496 416 496 160
WIRE 544 416 496 416
WIRE 672 416 672 288
WIRE 672 416 608 416
WIRE 752 416 672 416
WIRE 1584 416 1584 384
WIRE 1344 432 1344 400
WIRE 1344 432 816 432
WIRE 1344 464 1344 432
WIRE 1344 576 1344 544
FLAG -144 336 0
FLAG 1344 576 0
FLAG 1584 416 0
FLAG 1680 0 V+
FLAG -144 -112 V+
FLAG 1440 -272 +5V
FLAG 1440 48 -5V
FLAG 1248 176 -5V
FLAG 784 448 -5V
FLAG 784 192 -5V
FLAG 240 48 -5V
FLAG 784 128 +5V
FLAG 784 384 +5V
FLAG 336 -448 +5V
FLAG 1248 -400 +5V
SYMBOL Opamps\\opamp2 784 96 M0
SYMATTR InstName U1
SYMATTR Value NE5532
SYMBOL npn 448 -48 R270
SYMATTR InstName Q1
SYMATTR Value tip101
SYMATTR Prefix X
SYMBOL voltage -144 48 R0
WINDOW 123 0 0 Left 2
WINDOW 39 24 124 Left 2
SYMATTR InstName V1
SYMATTR Value 20
SYMATTR SpiceLine Rser=0.1
SYMBOL voltage 1440 -256 R0
WINDOW 123 0 0 Left 2
WINDOW 39 24 124 Left 2
SYMATTR InstName V2
SYMATTR Value 5
SYMATTR SpiceLine Rser=1
SYMBOL voltage 1440 -80 R0
WINDOW 123 0 0 Left 2
WINDOW 39 24 124 Left 2
SYMATTR InstName V3
SYMATTR Value 5
SYMATTR SpiceLine Rser=1
SYMBOL res 320 -400 R0
SYMATTR InstName R1
SYMATTR Value 330
SYMBOL res 224 -96 R0
SYMATTR InstName R2
SYMATTR Value 10k
SYMBOL diode 512 64 R180
WINDOW 0 24 64 Left 2
WINDOW 3 24 0 Left 2
SYMATTR InstName D1
SYMATTR Value 1N4148
SYMBOL pnp 304 -224 R180
SYMATTR InstName Q2
SYMATTR Value BC857C
SYMBOL pnp 272 -144 M180
SYMATTR InstName Q3
SYMATTR Value BC857C
SYMBOL diode 544 176 R270
WINDOW 0 32 32 VTop 2
WINDOW 3 0 32 VBottom 2
SYMATTR InstName D2
SYMATTR Value 1N4148
SYMBOL diode 544 432 R270
WINDOW 0 32 32 VTop 2
WINDOW 3 0 32 VBottom 2
SYMATTR InstName D3
SYMATTR Value 1N4148
SYMBOL Opamps\\opamp2 784 352 M0
SYMATTR InstName U2
SYMATTR Value NE5532
SYMBOL res 1120 -128 R90
WINDOW 0 0 56 VBottom 2
WINDOW 3 32 56 VTop 2
SYMATTR InstName R3
SYMATTR Value 1
SYMBOL res 880 -96 R0
SYMATTR InstName R4
SYMATTR Value 22k
SYMBOL cap 816 16 R90
WINDOW 0 0 32 VBottom 2
WINDOW 3 32 32 VTop 2
SYMATTR InstName C1
SYMATTR Value 100p
SYMBOL cap 816 272 R90
WINDOW 0 0 32 VBottom 2
WINDOW 3 32 32 VTop 2
SYMATTR InstName C2
SYMATTR Value 100p
SYMBOL res 1232 -240 R0
SYMATTR InstName R5
SYMATTR Value 5k
SYMBOL res 1232 -384 R0
SYMATTR InstName R6
SYMATTR Value 5k
SYMBOL res 1232 -96 R0
SYMATTR InstName R7
SYMATTR Value 1k
SYMBOL res 1232 48 R0
SYMATTR InstName R8
SYMATTR Value 9k
SYMBOL res 1136 -240 R0
SYMATTR InstName R9
SYMATTR Value 20k
SYMBOL res 1136 -96 R0
SYMATTR InstName R10
SYMATTR Value 20k
SYMBOL res 1168 272 R180
WINDOW 0 36 76 Left 2
WINDOW 3 36 40 Left 2
SYMATTR InstName R11
SYMATTR Value 22k
SYMBOL res 1328 304 R0
SYMATTR InstName R12
SYMATTR Value 4k7
SYMBOL res 1328 448 R0
SYMATTR InstName R13
SYMATTR Value 47k
SYMBOL npn 1616 176 R0
SYMATTR InstName Q4
SYMATTR Value BC847C
SYMBOL npn 1648 96 M0
SYMATTR InstName Q5
SYMATTR Value BC847C
SYMBOL res 1664 16 R0
SYMATTR InstName R14
SYMATTR Value 5k
SYMBOL res 1568 240 R0
SYMATTR InstName R15
SYMATTR Value 5k
TEXT -584 104 Left 2 !.lib NE5532.sub
TEXT -584 40 Left 2 ;.ac dec 0 1000Meg 1
TEXT -584 72 Left 2 !.lib TIP101.LIB
TEXT -584 8 Left 2 !.tran 0 10m 8m
